Metadata-Version: 2.1
Name: flopy
Version: 3.9.0
Summary: FloPy is a Python package to create, run, and post-process MODFLOW-based models
Author-email: FloPy Team <modflow@usgs.gov>
Maintainer-email: "Joseph D. Hughes" <jdhughes@usgs.gov>
License: CC0
Project-URL: Documentation, https://flopy.readthedocs.io
Project-URL: Release Notes, https://github.com/modflowpy/flopy/blob/develop/docs/version_changes.md
Project-URL: Bug Tracker, https://github.com/modflowpy/flopy/issues
Project-URL: Source Code, https://github.com/modflowpy/flopy
Keywords: MODFLOW,groundwater,hydrogeology
Classifier: Development Status :: 5 - Production/Stable
Classifier: Intended Audience :: Science/Research
Classifier: License :: CC0 1.0 Universal (CC0 1.0) Public Domain Dedication
Classifier: Programming Language :: Python :: 3 :: Only
Classifier: Programming Language :: Python :: 3.9
Classifier: Programming Language :: Python :: 3.10
Classifier: Programming Language :: Python :: 3.11
Classifier: Programming Language :: Python :: 3.12
Classifier: Programming Language :: Python :: 3.13
Classifier: Topic :: Scientific/Engineering :: Hydrology
Requires-Python: >=3.9
Description-Content-Type: text/markdown
License-File: LICENSE.md
Requires-Dist: numpy>=1.20.3
Requires-Dist: matplotlib>=1.4.0
Requires-Dist: pandas>=2.0.0
Provides-Extra: dev
Requires-Dist: flopy[doc,lint,optional,test]; extra == "dev"
Requires-Dist: tach; extra == "dev"
Provides-Extra: lint
Requires-Dist: cffconvert; extra == "lint"
Requires-Dist: codespell[toml]>=2.2.2; extra == "lint"
Requires-Dist: ruff; extra == "lint"
Provides-Extra: test
Requires-Dist: flopy[lint]; extra == "test"
Requires-Dist: coverage!=7.6.5; extra == "test"
Requires-Dist: flaky; extra == "test"
Requires-Dist: filelock; extra == "test"
Requires-Dist: jupyter; extra == "test"
Requires-Dist: jupyter_client>=8.4.0; extra == "test"
Requires-Dist: jupytext; extra == "test"
Requires-Dist: modflow-devtools; extra == "test"
Requires-Dist: pytest!=8.1.0; extra == "test"
Requires-Dist: pytest-benchmark; extra == "test"
Requires-Dist: pytest-cov; extra == "test"
Requires-Dist: pytest-dotenv; extra == "test"
Requires-Dist: pytest-xdist; extra == "test"
Requires-Dist: pyzmq>=25.1.2; extra == "test"
Requires-Dist: syrupy; extra == "test"
Requires-Dist: virtualenv; extra == "test"
Provides-Extra: optional
Requires-Dist: affine; extra == "optional"
Requires-Dist: descartes; extra == "optional"
Requires-Dist: fiona; extra == "optional"
Requires-Dist: geojson; extra == "optional"
Requires-Dist: geopandas; extra == "optional"
Requires-Dist: GitPython; extra == "optional"
Requires-Dist: imageio; extra == "optional"
Requires-Dist: netcdf4; extra == "optional"
Requires-Dist: pooch; extra == "optional"
Requires-Dist: pymetis; platform_system != "Windows" and extra == "optional"
Requires-Dist: pyproj; extra == "optional"
Requires-Dist: pyshp; extra == "optional"
Requires-Dist: pyvista; extra == "optional"
Requires-Dist: rasterio; extra == "optional"
Requires-Dist: rasterstats; extra == "optional"
Requires-Dist: scipy; extra == "optional"
Requires-Dist: shapely>=2.0; extra == "optional"
Requires-Dist: vtk; extra == "optional"
Requires-Dist: xmipy; extra == "optional"
Provides-Extra: doc
Requires-Dist: flopy[optional]; extra == "doc"
Requires-Dist: ipython[kernel]; extra == "doc"
Requires-Dist: jupytext; extra == "doc"
Requires-Dist: myst-parser; extra == "doc"
Requires-Dist: nbconvert<7.14.0; extra == "doc"
Requires-Dist: nbsphinx; extra == "doc"
Requires-Dist: PyYAML; extra == "doc"
Requires-Dist: rtds-action; extra == "doc"
Requires-Dist: sphinx==7.1.2; extra == "doc"
Requires-Dist: sphinx-rtd-theme>=1; extra == "doc"

Introduction
-----------------------------------------------

FloPy includes support for MODFLOW 6, MODFLOW-2005, MODFLOW-NWT, MODFLOW-USG, and MODFLOW-2000. Other supported MODFLOW-based models include MODPATH (version 6 and 7), MT3DMS, MT3D-USGS, and SEAWAT.

For general modeling issues, please consult a modeling forum, such as the [MODFLOW Users Group](https://groups.google.com/forum/#!forum/modflow).  Other MODFLOW resources are listed in the [MODFLOW Resources](https://github.com/modflowpy/flopy#modflow-resources) section.


Documentation
-----------------------------------------------

Documentation is available on [Read the Docs](https://flopy.readthedocs.io)
and includes information on FloPy; tutorials for using FloPy with MODFLOW 6
and previous versions of MODFLOW, MT3DMS, MT3D-USGS, MODPATH, and ZONEBUDGET;
and code documentation.


Contributing
------------------------------------------------

Bug reports, code contributions, or improvements to the documentation are welcome from the community. Prior to contributing, please read up on our guidelines for [contributing](https://github.com/modflowpy/flopy/blob/develop/CONTRIBUTING.md) and then check out one of our issues in the [hotlist: community-help](https://github.com/modflowpy/flopy/labels/hotlist%3A%20community%20help).


How to Cite
-----------------------------------------------

*Citation for FloPy:*

[Bakker, Mark, Post, Vincent, Langevin, C. D., Hughes, J. D., White, J. T., Starn, J. J. and Fienen, M. N., 2016, Scripting MODFLOW Model Development Using Python and FloPy: Groundwater, v. 54, p. 733–739, doi:10.1111/gwat.12413.](https://doi.org/10.1111/gwat.12413)

*Software/Code citation for FloPy:*

[Bakker, Mark, Post, Vincent, Hughes, J. D., Langevin, C. D., White, J. T., Leaf, A. T., Paulinski, S. R., Bellino, J. C., Morway, E. D., Toews, M. W., Larsen, J. D., Fienen, M. N., Starn, J. J., Brakenhoff, D. A., and Bonelli, W. P., 2024, FloPy v3.9.0: U.S. Geological Survey Software Release, 20 December 2024, https://doi.org/10.5066/F7BK19FH](https://doi.org/10.5066/F7BK19FH)

License
=======

Unless otherwise noted, This project is in the public domain in the United
States because it contains materials that originally came from the United
States Geological Survey, an agency of the United States Department of
Interior. For more information, see the official USGS copyright policy at
https://www2.usgs.gov/visual-id/credit_usgs.html#copyright

Additionally, we waive copyright and related rights in the work
worldwide through the CC0 1.0 Universal public domain dedication.


CC0 1.0 Universal Summary
-------------------------

This is a human-readable summary of the
[Legal Code (read the full text)][1].


### No Copyright

The person who associated a work with this deed has dedicated the work to
the public domain by waiving all of his or her rights to the work worldwide
under copyright law, including all related and neighboring rights, to the
extent allowed by law.

You can copy, modify, distribute and perform the work, even for commercial
purposes, all without asking permission.


### Other Information

In no way are the patent or trademark rights of any person affected by CC0,
nor are the rights that other persons may have in the work or in how the
work is used, such as publicity or privacy rights.

Unless expressly stated otherwise, the person who associated a work with
this deed makes no warranties about the work, and disclaims liability for
all uses of the work, to the fullest extent permitted by applicable law.
When using or citing the work, you should not imply endorsement by the
author or the affirmer.



[1]: https://creativecommons.org/publicdomain/zero/1.0/legalcode
